LTspice 24.1.7 for Windows
Circuit: C:\Users\sergi\OneDrive\Documents\Universidad\Digital\SN74HCT04.cir
Start Time: Wed May 14 16:22:39 2025
No analysis specified.